$ MSC.Nastran input file created on February  18, 2020 at 18:00:46 by
$ Patran 2019
$ Direct Text Input for Nastran System Cell Section
$ Direct Text Input for File Management Section
$ Direct Text Input for Executive Control
$ Nonlinear Static Analysis, Database
SOL 106
CEND
$ Direct Text Input for Global Case Control Data
TITLE = MSC.Nastran job created on 18-Feb-20 at 13:40:30
ECHO = NONE
SUBCASE 1
   SUBTITLE=Default
   NLPARM = 1
   SPC = 2
   LOAD = 2
   ESE(PRINT,AVERAGE,THRESH=.00000001) =ALL 
   STRESS(SORT1,REAL,VONMISES,BILIN)=ALL
$ Direct Text Input for this Subcase
BEGIN BULK
$ Direct Text Input for Bulk Data
MDLPRM   HDF5    0
PARAM    POST    0
PARAM    AUTOSPC NO
PARAM    LGDISP  1
PARAM   PRTMAXIM YES
NLPARM   1       10              AUTO    5       25              NO
$$ PSOLID DATA 
$$ 
PSOLID   1       1       1 
PSOLID   2       2       1 
PSOLID   3       3       1 
PSOLID   4       4       1 
PSOLID   5       5       1 
PSOLID   6       6       1 
PSOLID   7       7       1 
PSOLID   8       8       1 
PSOLID   9       9       1 
PSOLID   10      10      1 
PSOLID   11      11      1 
PSOLID   12      12      1 
PSOLID   13      13      1 
PSOLID   14      14      1 
PSOLID   15      15      1 
PSOLID   16      16      1 
PSOLID   17      17      1 
PSOLID   18      18      1 
PSOLID   19      19      1 
PSOLID   20      20      1 
$ ... 20347 like lines cut
$$ CTETRA DATA 
CTETRA   1       1       200     199     198     197 
CTETRA   2       2       196     195     194     193 
CTETRA   3       3       192     191     190     197 
CTETRA   4       4       190     189     191     188 
CTETRA   5       5       187     186     189     197 
CTETRA   6       6       185     190     186     197 
CTETRA   7       7       185     184     183     190 
CTETRA   8       8       407     449     182     181 
CTETRA   9       9       180     179     178     181 
CTETRA   10      10      449     325     326     177 
CTETRA   11      11      370     176     196     194 
CTETRA   12      12      180     178     175     181 
CTETRA   13      13      174     173     187     197 
CTETRA   14      14      389     379     380     196 
CTETRA   15      15      370     196     172     194 
CTETRA   16      16      444     171     170     169 
CTETRA   17      17      326     175     317     178 
CTETRA   18      18      371     196     370     176 
CTETRA   19      19      389     168     167     193 
CTETRA   20      20      380     379     370     196 
$ ... 20347 like lines cut
$ GRID 
GRID*    1                              .4827497005462651.06058156490326
*       .61050409078598
GRID*    2                              .5354853272438051.06045281887054
*       .608126938343048
GRID*    3                              .4918210804462431.02249610424042
*       .483705759048462
GRID*    4                              .4559973478317261.06442606449127
*       .504309415817261
GRID*    5                              .4458128213882451.02668476104736
*       .50823038816452
GRID*    6                              .4565444886684421.06078946590424
*       .571675539016724
GRID*    7                              .456815272569656.849760234355927
*       .55982506275177
GRID*    8                              .5026651620864871.02956581115723
*       .624292731285095
GRID*    9                              .4998824000358581.04702353477478
*       .582483768463135
GRID*    10                             .5127387046813971.06028687953949
*       .628667712211609
GRID*    11                             .520756959915161.549618124961853
*       .600940525531769
GRID*    12                             .474523216485977.990323007106781
*       .501749455928803
GRID*    13                             .48344948887825 1.04277038574219
*       .536785483360291
GRID*    14                             .515583038330078.981910526752472
*       .493303865194321
GRID*    15                             .534991264343262.99823534488678
*       .567384481430054
GRID*    16                             .5125249028205871.0173853635788
*       .526972115039825
GRID*    17                             .469540178775787.653992891311646
*       .580746948719025
GRID*    18                             .46443772315979 .625446677207947
*       .578171730041504
GRID*    19                             .5182120203971861.05199611186981
*       .469692677259445
GRID*    20                             .5861477255821231.0350034236908
*       .538373470306397
$ ... 8162 like lines cut
$ Referenced Material Records 
$ Material Record : mat1 
$ Description of Material : Date: 19-Feb-2020           Time: 13:48:07 
MAT1     1      103400. 38296.3 .35     4.5 
MAT1     2      103400. 38296.3 .35     4.5 
MAT1     3      103400. 38296.3 .35     4.5 
MAT1     4      103400. 38296.3 .35     4.5 
MAT1     5      103400. 38296.3 .35     4.5 
MAT1     6      103400. 38296.3 .35     4.5 
MAT1     7      103400. 38296.3 .35     4.5 
MAT1     8      103400. 38296.3 .35     4.5 
MAT1     9      103400. 38296.3 .35     4.5 
MAT1     10     103400. 38296.3 .35     4.5 
MAT1     11     103400. 38296.3 .35     4.5 
MAT1     12     103400. 38296.3 .35     4.5 
MAT1     13     103400. 38296.3 .35     4.5 
MAT1     14     103400. 38296.3 .35     4.5 
MAT1     15     103400. 38296.3 .35     4.5 
MAT1     16     103400. 38296.3 .35     4.5 
MAT1     17     103400. 38296.3 .35     4.5 
MAT1     18     103400. 38296.3 .35     4.5 
MAT1     19     103400. 38296.3 .35     4.5 
MAT1     20     103400. 38296.3 .35     4.5 
$ ... 20347 like lines cut
$ SFC 
$ Loads for Load Case : Default
SPCADD   2       1
LOAD     2      1.      1.       1
$ Displacement Constraints of Load Set : constraints
SPC1     1       123456  11370   THRU    11380
SPC1     1       123456  11390   THRU    11400
SPC1     1       123456  11425   THRU    11502
SPC1     1       123456  11729   THRU    11737
SPC1     1       123456  12143   THRU    12153
SPC1     1       123456  12522   THRU    12583
SPC1     1       123456  30829   THRU    30864
SPC1     1       123456  31563   THRU    31598
$ Deform Body Contact LBC set: cancellous
BCBODY   1       3D      DEFORM  9       0
BSURF    9       30000   30001   30002   30003   30004   30005   30006
         30007   30008   30009   30010   30011   30012   30013   30014
         30015   30016   30017   30018   30019   30020   30021   30022
         30023   30024   30025   30026   30027   30028   30029   30030
         30031   30032   30034   30035   30036   30037   30038   30039
         30040   30041   30042   30043   30044   30045   30046   30048
         30049   30050   30051   30052   30053   30054   30055   30056
         30057   30058   30059   30060   30061   30062   30063   30064
         30065   30066   30068   30069   30070   30071   30073   30074
         30075   30076   30077   30078   30079   30080   30081   30082
         30083   30084   30085   30087   30088   30089   30090   30091
         30092   30093   30094   30095   30096   30097   30098   30099
         30100   30101   30102   30103   30105   30106   30107   30108
         30109   30110   30111   30112   30113   30114   30115   30116
         30117   30118   30119   30120   30121   30122   30123   30124
         30125   30126   30127   30128   30129   30130   30131   30132
         30133   30134   30135   30136   30137   30138   30140   30141
         30142   30143   30145   30146   30147   30148   30149   30150
         30151   30152   30153   30154   30155   30156   30157   30158
         30159   30160   30161   30162   30163   30164   30166   30167
         30168   30169   30170   30171   30172   30173   30174   30175
$ ... 879 like lines cut
$ Deform Body Contact LBC set: cortical
BCBODY   2       3D      DEFORM  8       0
BCPROP   8       2
$ Deform Body Contact LBC set: revolve
BCBODY   3       3D      DEFORM  10      0
BSURF    10      1       2       3       4       5       6       7
         8       9       10      11      12      13      14      15
         16      17      18      19      20      21      22      23
         24      25      26      27      28      29      30      31
         32      33      34      35      36      37      38      39
         40      41      42      43      44      45      46      47
         48      49      50      51      52      53      54      55
         56      57      58      59      60      61      62      63
         64      65      66      67      68      69      70      71
         72      73      74      75      76      77      78      79
         80      81      82      83      84      85      86      87
         88      89      90      91      92      93      94      95
         96      97      98      99      100     101     102     103
         104     105     106     107     108     109     110     111
         112     113     114     115     116     117     118     119
         120     121     122     123     124     125     126     127
         128     129     130     131     132     133     134     135
         136     137     138     139     140     141     142     143
         144     145     146     147     148     149     150     151
         152     153     154     155     156     157     158     159
         160     161     162     163     164     165     166     167
$ ... 239 like lines cut
$ Nodal Forces of Load Set : force
FORCE    1       212     1      118.208 .14466  .197956 .969478
$ Referenced Coordinate Frames
CORD2C*  1                              .5056605339050291.08632743358612
*       .550358593463898.592153246100088-.22942803517869.551393049517712
*       -.81008919746680.999832009883418.546439620335689
*
ENDDATA 07a70eef